<?xml version="1.0" encoding="UTF-8"?>

<!-- generated on 2024-11-11 16:21:00 by Eclipse SUMO netedit Version 1.21.0
-->

<routes xmlns:xsi="http://www.w3.org/2001/XMLSchema-instance" xsi:noNamespaceSchemaLocation="http://sumo.dlr.de/xsd/routes_file.xsd">
    <!-- Routes -->
    <route id="r_0" edges="E17 E14 E15 E12"/>
    <route id="r_1" edges="E4 E11 E15 E12"/>
    <route id="r_10" edges="E10 E3 E0 E4"/>
    <route id="r_11" edges="E13 E20 E23 E22"/>
    <route id="r_12" edges="E2 E6 E13 E20"/>
    <route id="r_13" edges="E20 E23 E19 E12"/>
    <route id="r_14" edges="E12 E8 E7 E3"/>
    <route id="r_15" edges="E15 E16 E20 E23"/>
    <route id="r_16" edges="E1 E2 E6 E9"/>
    <route id="r_2" edges="E18 E21 E17 E10"/>
    <route id="r_3" edges="E10 E3 E0 E4"/>
    <route id="r_4" edges="E23 E19 E12 E5"/>
    <route id="r_5" edges="E10 E3 E0 E4"/>
    <route id="r_6" edges="E9 E5 E2 E6"/>
    <route id="r_7" edges="E23 E19 E12 E8"/>
    <route id="r_8" edges="E1 E2 E6 E13"/>
    <route id="r_9" edges="E15 E16 E20 E23"/>
    <!-- Vehicles, persons and containers (sorted by depart) -->
    <flow id="f_0" begin="0.00" route="r_0" end="600.00" number="41"/>
    <flow id="f_1" begin="0.00" route="r_1" end="600.00" number="41"/>
    <flow id="f_10" begin="0.00" route="r_10" end="600.00" number="41"/>
    <flow id="f_11" begin="0.00" route="r_11" end="600.00" number="42"/>
    <flow id="f_12" begin="0.00" route="r_12" end="600.00" number="40"/>
    <flow id="f_13" begin="0.00" route="r_13" end="600.00" number="41"/>
    <flow id="f_14" begin="0.00" route="r_14" end="600.00" number="41"/>
    <flow id="f_15" begin="0.00" route="r_15" end="600.00" number="41"/>
    <flow id="f_16" begin="0.00" route="r_16" end="600.00" number="42"/>
    <flow id="f_2" begin="0.00" route="r_2" end="600.00" number="42"/>
    <flow id="f_3" begin="0.00" route="r_3" end="600.00" number="42"/>
    <flow id="f_4" begin="0.00" route="r_4" end="600.00" number="41"/>
    <flow id="f_5" begin="0.00" route="r_5" end="600.00" number="41"/>
    <flow id="f_6" begin="0.00" route="r_6" end="600.00" number="41"/>
    <flow id="f_7" begin="0.00" route="r_7" end="600.00" number="40"/>
    <flow id="f_8" begin="0.00" route="r_8" end="600.00" number="42"/>
    <flow id="f_9" begin="0.00" route="r_9" end="600.00" number="40"/>
</routes>
