<?xml version='1.0' encoding='utf-8'?>
<net xmlns:xsi="http://www.w3.org/2001/XMLSchema-instance" version="1.20" junctionCornerDetail="5" limitTurnSpeed="5.50" xsi:noNamespaceSchemaLocation="http://sumo.dlr.de/xsd/net_file.xsd">

    <location netOffset="0.00,0.00" convBoundary="-300.00,-100.00,0.00,200.00" origBoundary="-10000000000.00,-10000000000.00,10000000000.00,10000000000.00" projParameter="!" />

    <edge id=":J0_0" function="internal">
        <lane id=":J0_0_0" index="0" speed="3.90" length="2.58" shape="-295.20,193.60 -295.10,194.30 -294.80,194.80 -294.30,195.10 -293.60,195.20" />
        <lane id=":J0_0_1" index="1" speed="6.08" length="7.74" shape="-298.40,193.60 -298.10,195.70 -297.20,197.20 -295.70,198.10 -293.60,198.40" />
    </edge>
    <edge id=":J1_0" function="internal">
        <lane id=":J1_0_0" index="0" speed="6.51" length="9.03" shape="-210.40,195.20 -207.95,194.85 -206.20,193.80 -205.15,192.05 -204.80,189.60" />
    </edge>
    <edge id=":J1_1" function="internal">
        <lane id=":J1_1_0" index="0" speed="13.89" length="14.40" shape="-210.40,195.20 -196.00,195.20" />
    </edge>
    <edge id=":J1_2" function="internal">
        <lane id=":J1_2_0" index="0" speed="8.00" length="14.19" shape="-210.40,198.40 -206.55,197.85 -203.80,196.20 -202.15,193.45 -201.60,189.60" />
    </edge>
    <edge id=":J1_3" function="internal">
        <lane id=":J1_3_0" index="0" speed="13.89" length="14.40" shape="-210.40,198.40 -196.00,198.40" />
    </edge>
    <edge id=":J10_0" function="internal">
        <lane id=":J10_0_0" index="0" speed="6.51" length="9.03" shape="-95.20,-13.60 -94.85,-11.15 -93.80,-9.40 -92.05,-8.35 -89.60,-8.00" />
        <lane id=":J10_0_1" index="1" speed="7.33" length="11.73" shape="-95.20,-13.60 -94.85,-9.75 -93.80,-7.00 -92.05,-5.35 -89.60,-4.80" />
    </edge>
    <edge id=":J10_2" function="internal">
        <lane id=":J10_2_0" index="0" speed="13.89" length="17.60" shape="-95.20,-13.60 -95.20,4.00" />
    </edge>
    <edge id=":J10_3" function="internal">
        <lane id=":J10_3_0" index="0" speed="8.67" length="5.56" shape="-98.40,-13.60 -97.85,-8.35 -97.74,-8.09" />
    </edge>
    <edge id=":J10_4" function="internal">
        <lane id=":J10_4_0" index="0" speed="13.89" length="17.60" shape="-98.40,-13.60 -98.40,4.00" />
    </edge>
    <edge id=":J10_10" function="internal">
        <lane id=":J10_10_0" index="0" speed="8.67" length="11.29" shape="-97.74,-8.09 -96.20,-4.60 -93.45,-2.35 -89.60,-1.60" />
    </edge>
    <edge id=":J10_5" function="internal">
        <lane id=":J10_5_0" index="0" speed="13.89" length="14.40" shape="-104.00,-8.00 -89.60,-8.00" />
        <lane id=":J10_5_1" index="1" speed="13.89" length="14.40" shape="-104.00,-4.80 -89.60,-4.80" />
    </edge>
    <edge id=":J10_7" function="internal">
        <lane id=":J10_7_0" index="0" speed="8.00" length="14.19" shape="-104.00,-4.80 -100.15,-4.25 -97.40,-2.60 -95.75,0.15 -95.20,4.00" />
    </edge>
    <edge id=":J10_8" function="internal">
        <lane id=":J10_8_0" index="0" speed="13.89" length="14.40" shape="-104.00,-1.60 -89.60,-1.60" />
    </edge>
    <edge id=":J10_9" function="internal">
        <lane id=":J10_9_0" index="0" speed="6.51" length="9.03" shape="-104.00,-1.60 -101.55,-1.25 -99.80,-0.20 -98.75,1.55 -98.40,4.00" />
    </edge>
    <edge id=":J11_0" function="internal">
        <lane id=":J11_0_0" index="0" speed="13.89" length="17.60" shape="-4.80,4.00 -4.80,-13.60" />
        <lane id=":J11_0_1" index="1" speed="13.89" length="17.60" shape="-1.60,4.00 -1.60,-13.60" />
    </edge>
    <edge id=":J11_2" function="internal">
        <lane id=":J11_2_0" index="0" speed="7.33" length="11.73" shape="-10.40,-4.80 -7.95,-5.35 -6.20,-7.00 -5.15,-9.75 -4.80,-13.60" />
        <lane id=":J11_2_1" index="1" speed="8.67" length="16.85" shape="-10.40,-1.60 -6.55,-2.35 -3.80,-4.60 -2.15,-8.35 -1.60,-13.60" />
    </edge>
    <edge id=":J12_0" function="internal">
        <lane id=":J12_0_0" index="0" speed="3.90" length="2.58" shape="-293.60,-95.20 -294.30,-95.10 -294.80,-94.80 -295.10,-94.30 -295.20,-93.60" />
        <lane id=":J12_0_1" index="1" speed="6.08" length="7.74" shape="-293.60,-98.40 -295.70,-98.10 -297.20,-97.20 -298.10,-95.70 -298.40,-93.60" />
    </edge>
    <edge id=":J13_0" function="internal">
        <lane id=":J13_0_0" index="0" speed="6.51" length="9.03" shape="-204.80,-89.60 -205.15,-92.05 -206.20,-93.80 -207.95,-94.85 -210.40,-95.20" />
        <lane id=":J13_0_1" index="1" speed="8.00" length="14.19" shape="-201.60,-89.60 -202.15,-93.45 -203.80,-96.20 -206.55,-97.85 -210.40,-98.40" />
    </edge>
    <edge id=":J13_2" function="internal">
        <lane id=":J13_2_0" index="0" speed="13.89" length="14.40" shape="-196.00,-95.20 -210.40,-95.20" />
        <lane id=":J13_2_1" index="1" speed="13.89" length="14.40" shape="-196.00,-98.40 -210.40,-98.40" />
    </edge>
    <edge id=":J14_0" function="internal">
        <lane id=":J14_0_0" index="0" speed="6.51" length="9.03" shape="-89.60,-95.20 -92.05,-94.85 -93.80,-93.80 -94.85,-92.05 -95.20,-89.60" />
    </edge>
    <edge id=":J14_1" function="internal">
        <lane id=":J14_1_0" index="0" speed="13.89" length="14.40" shape="-89.60,-95.20 -104.00,-95.20" />
    </edge>
    <edge id=":J14_2" function="internal">
        <lane id=":J14_2_0" index="0" speed="8.00" length="4.07" shape="-89.60,-98.40 -93.45,-97.85 -93.60,-97.76" />
    </edge>
    <edge id=":J14_3" function="internal">
        <lane id=":J14_3_0" index="0" speed="13.89" length="14.40" shape="-89.60,-98.40 -104.00,-98.40" />
    </edge>
    <edge id=":J14_4" function="internal">
        <lane id=":J14_4_0" index="0" speed="8.00" length="10.13" shape="-93.60,-97.76 -96.20,-96.20 -97.85,-93.45 -98.40,-89.60" />
    </edge>
    <edge id=":J15_0" function="internal">
        <lane id=":J15_0_0" index="0" speed="3.90" length="2.58" shape="-4.80,-93.60 -4.90,-94.30 -5.20,-94.80 -5.70,-95.10 -6.40,-95.20" />
        <lane id=":J15_0_1" index="1" speed="6.08" length="7.74" shape="-1.60,-93.60 -1.90,-95.70 -2.80,-97.20 -4.30,-98.10 -6.40,-98.40" />
    </edge>
    <edge id=":J2_0" function="internal">
        <lane id=":J2_0_0" index="0" speed="6.51" length="9.03" shape="-95.20,189.60 -94.85,192.05 -93.80,193.80 -92.05,194.85 -89.60,195.20" />
        <lane id=":J2_0_1" index="1" speed="8.00" length="14.19" shape="-98.40,189.60 -97.85,193.45 -96.20,196.20 -93.45,197.85 -89.60,198.40" />
    </edge>
    <edge id=":J2_2" function="internal">
        <lane id=":J2_2_0" index="0" speed="13.89" length="14.40" shape="-104.00,195.20 -89.60,195.20" />
        <lane id=":J2_2_1" index="1" speed="13.89" length="14.40" shape="-104.00,198.40 -89.60,198.40" />
    </edge>
    <edge id=":J3_0" function="internal">
        <lane id=":J3_0_0" index="0" speed="3.90" length="2.58" shape="-6.40,195.20 -5.70,195.10 -5.20,194.80 -4.90,194.30 -4.80,193.60" />
        <lane id=":J3_0_1" index="1" speed="6.08" length="7.74" shape="-6.40,198.40 -4.30,198.10 -2.80,197.20 -1.90,195.70 -1.60,193.60" />
    </edge>
    <edge id=":J4_0" function="internal">
        <lane id=":J4_0_0" index="0" speed="6.51" length="9.03" shape="-289.60,104.80 -292.05,105.15 -293.80,106.20 -294.85,107.95 -295.20,110.40" />
        <lane id=":J4_0_1" index="1" speed="8.00" length="14.19" shape="-289.60,101.60 -293.45,102.15 -296.20,103.80 -297.85,106.55 -298.40,110.40" />
    </edge>
    <edge id=":J4_2" function="internal">
        <lane id=":J4_2_0" index="0" speed="13.89" length="14.40" shape="-298.40,96.00 -298.40,110.40" />
    </edge>
    <edge id=":J5_0" function="internal">
        <lane id=":J5_0_0" index="0" speed="6.51" length="9.03" shape="-204.80,110.40 -205.15,107.95 -206.20,106.20 -207.95,105.15 -210.40,104.80" />
    </edge>
    <edge id=":J5_1" function="internal">
        <lane id=":J5_1_0" index="0" speed="13.89" length="14.40" shape="-204.80,110.40 -204.80,96.00" />
    </edge>
    <edge id=":J5_2" function="internal">
        <lane id=":J5_2_0" index="0" speed="8.00" length="14.19" shape="-201.60,110.40 -202.15,106.55 -203.80,103.80 -206.55,102.15 -210.40,101.60" />
    </edge>
    <edge id=":J5_3" function="internal">
        <lane id=":J5_3_0" index="0" speed="13.89" length="14.40" shape="-201.60,110.40 -201.60,96.00" />
    </edge>
    <edge id=":J5_4" function="internal">
        <lane id=":J5_4_0" index="0" speed="13.89" length="14.40" shape="-196.00,104.80 -210.40,104.80" />
    </edge>
    <edge id=":J5_5" function="internal">
        <lane id=":J5_5_0" index="0" speed="8.00" length="14.19" shape="-196.00,104.80 -199.85,104.25 -202.60,102.60 -204.25,99.85 -204.80,96.00" />
    </edge>
    <edge id=":J5_6" function="internal">
        <lane id=":J5_6_0" index="0" speed="13.89" length="14.40" shape="-196.00,101.60 -210.40,101.60" />
    </edge>
    <edge id=":J5_7" function="internal">
        <lane id=":J5_7_0" index="0" speed="6.51" length="9.03" shape="-196.00,101.60 -198.45,101.25 -200.20,100.20 -201.25,98.45 -201.60,96.00" />
    </edge>
    <edge id=":J6_0" function="internal">
        <lane id=":J6_0_0" index="0" speed="6.51" length="9.03" shape="-89.60,104.80 -92.05,105.15 -93.80,106.20 -94.85,107.95 -95.20,110.40" />
    </edge>
    <edge id=":J6_1" function="internal">
        <lane id=":J6_1_0" index="0" speed="13.89" length="14.40" shape="-89.60,104.80 -104.00,104.80" />
    </edge>
    <edge id=":J6_2" function="internal">
        <lane id=":J6_2_0" index="0" speed="8.00" length="14.19" shape="-89.60,101.60 -93.45,102.15 -96.20,103.80 -97.85,106.55 -98.40,110.40" />
    </edge>
    <edge id=":J6_3" function="internal">
        <lane id=":J6_3_0" index="0" speed="13.89" length="14.40" shape="-89.60,101.60 -104.00,101.60" />
    </edge>
    <edge id=":J6_4" function="internal">
        <lane id=":J6_4_0" index="0" speed="13.89" length="14.40" shape="-95.20,96.00 -95.20,110.40" />
    </edge>
    <edge id=":J6_5" function="internal">
        <lane id=":J6_5_0" index="0" speed="8.00" length="14.19" shape="-95.20,96.00 -95.75,99.85 -97.40,102.60 -100.15,104.25 -104.00,104.80" />
    </edge>
    <edge id=":J6_6" function="internal">
        <lane id=":J6_6_0" index="0" speed="13.89" length="14.40" shape="-98.40,96.00 -98.40,110.40" />
    </edge>
    <edge id=":J6_7" function="internal">
        <lane id=":J6_7_0" index="0" speed="6.51" length="9.03" shape="-98.40,96.00 -98.75,98.45 -99.80,100.20 -101.55,101.25 -104.00,101.60" />
    </edge>
    <edge id=":J7_0" function="internal">
        <lane id=":J7_0_0" index="0" speed="6.51" length="9.03" shape="-4.80,110.40 -5.15,107.95 -6.20,106.20 -7.95,105.15 -10.40,104.80" />
        <lane id=":J7_0_1" index="1" speed="8.00" length="14.19" shape="-1.60,110.40 -2.15,106.55 -3.80,103.80 -6.55,102.15 -10.40,101.60" />
    </edge>
    <edge id=":J7_2" function="internal">
        <lane id=":J7_2_0" index="0" speed="13.89" length="14.40" shape="-1.60,110.40 -1.60,96.00" />
    </edge>
    <edge id=":J8_0" function="internal">
        <lane id=":J8_0_0" index="0" speed="6.51" length="9.03" shape="-295.20,-13.60 -294.85,-11.15 -293.80,-9.40 -292.05,-8.35 -289.60,-8.00" />
        <lane id=":J8_0_1" index="1" speed="7.33" length="11.73" shape="-295.20,-13.60 -294.85,-9.75 -293.80,-7.00 -292.05,-5.35 -289.60,-4.80" />
    </edge>
    <edge id=":J8_2" function="internal">
        <lane id=":J8_2_0" index="0" speed="13.89" length="17.60" shape="-295.20,-13.60 -295.20,4.00" />
    </edge>
    <edge id=":J8_3" function="internal">
        <lane id=":J8_3_0" index="0" speed="8.67" length="5.56" shape="-298.40,-13.60 -297.85,-8.35 -297.74,-8.09" />
    </edge>
    <edge id=":J8_4" function="internal">
        <lane id=":J8_4_0" index="0" speed="13.89" length="17.60" shape="-298.40,-13.60 -298.40,4.00" />
    </edge>
    <edge id=":J8_5" function="internal">
        <lane id=":J8_5_0" index="0" speed="8.67" length="11.29" shape="-297.74,-8.09 -296.20,-4.60 -293.45,-2.35 -289.60,-1.60" />
    </edge>
    <edge id=":J9_0" function="internal">
        <lane id=":J9_0_0" index="0" speed="13.89" length="17.60" shape="-204.80,4.00 -204.80,-13.60" />
    </edge>
    <edge id=":J9_1" function="internal">
        <lane id=":J9_1_0" index="0" speed="8.67" length="16.85" shape="-204.80,4.00 -204.25,-1.25 -202.60,-5.00 -199.85,-7.25 -196.00,-8.00" />
        <lane id=":J9_1_1" index="1" speed="8.00" length="14.19" shape="-204.80,4.00 -204.25,0.15 -202.60,-2.60 -199.85,-4.25 -196.00,-4.80" />
    </edge>
    <edge id=":J9_3" function="internal">
        <lane id=":J9_3_0" index="0" speed="13.89" length="17.60" shape="-201.60,4.00 -201.60,-13.60" />
    </edge>
    <edge id=":J9_4" function="internal">
        <lane id=":J9_4_0" index="0" speed="6.51" length="9.03" shape="-201.60,4.00 -201.25,1.55 -200.20,-0.20 -198.45,-1.25 -196.00,-1.60" />
    </edge>
    <edge id=":J9_5" function="internal">
        <lane id=":J9_5_0" index="0" speed="6.51" length="9.03" shape="-210.40,-8.00 -207.95,-8.35 -206.20,-9.40 -205.15,-11.15 -204.80,-13.60" />
    </edge>
    <edge id=":J9_6" function="internal">
        <lane id=":J9_6_0" index="0" speed="13.89" length="14.40" shape="-210.40,-8.00 -196.00,-8.00" />
        <lane id=":J9_6_1" index="1" speed="13.89" length="14.40" shape="-210.40,-4.80 -196.00,-4.80" />
    </edge>
    <edge id=":J9_8" function="internal">
        <lane id=":J9_8_0" index="0" speed="8.67" length="3.71" shape="-210.40,-1.60 -206.76,-2.31" />
    </edge>
    <edge id=":J9_9" function="internal">
        <lane id=":J9_9_0" index="0" speed="13.89" length="14.40" shape="-210.40,-1.60 -196.00,-1.60" />
    </edge>
    <edge id=":J9_10" function="internal">
        <lane id=":J9_10_0" index="0" speed="8.67" length="13.14" shape="-206.76,-2.31 -206.55,-2.35 -203.80,-4.60 -202.15,-8.35 -201.60,-13.60" />
    </edge>

    <edge id="E0" from="J0" to="J1" priority="-1">
        <lane id="E0_0" index="0" speed="13.89" length="83.20" shape="-293.60,195.20 -210.40,195.20" />
        <lane id="E0_1" index="1" speed="13.89" length="83.20" shape="-293.60,198.40 -210.40,198.40" />
    </edge>
    <edge id="E1" from="J1" to="J2" priority="-1">
        <lane id="E1_0" index="0" speed="13.89" length="92.00" shape="-196.00,195.20 -104.00,195.20" />
        <lane id="E1_1" index="1" speed="13.89" length="92.00" shape="-196.00,198.40 -104.00,198.40" />
    </edge>
    <edge id="E10" from="J8" to="J4" priority="-1">
        <lane id="E10_0" index="0" speed="13.89" length="92.00" shape="-295.20,4.00 -295.20,96.00" />
        <lane id="E10_1" index="1" speed="13.89" length="92.00" shape="-298.40,4.00 -298.40,96.00" />
    </edge>
    <edge id="E11" from="J5" to="J9" priority="-1">
        <lane id="E11_0" index="0" speed="13.89" length="92.00" shape="-204.80,96.00 -204.80,4.00" />
        <lane id="E11_1" index="1" speed="13.89" length="92.00" shape="-201.60,96.00 -201.60,4.00" />
    </edge>
    <edge id="E12" from="J10" to="J6" priority="-1">
        <lane id="E12_0" index="0" speed="13.89" length="92.00" shape="-95.20,4.00 -95.20,96.00" />
        <lane id="E12_1" index="1" speed="13.89" length="92.00" shape="-98.40,4.00 -98.40,96.00" />
    </edge>
    <edge id="E13" from="J7" to="J11" priority="-1">
        <lane id="E13_0" index="0" speed="13.89" length="92.00" shape="-4.80,96.00 -4.80,4.00" />
        <lane id="E13_1" index="1" speed="13.89" length="92.00" shape="-1.60,96.00 -1.60,4.00" />
    </edge>
    <edge id="E14" from="J8" to="J9" priority="-1">
        <lane id="E14_0" index="0" speed="13.89" length="79.20" shape="-289.60,-8.00 -210.40,-8.00" />
        <lane id="E14_1" index="1" speed="13.89" length="79.20" shape="-289.60,-4.80 -210.40,-4.80" />
        <lane id="E14_2" index="2" speed="13.89" length="79.20" shape="-289.60,-1.60 -210.40,-1.60" />
    </edge>
    <edge id="E15" from="J9" to="J10" priority="-1">
        <lane id="E15_0" index="0" speed="13.89" length="92.00" shape="-196.00,-8.00 -104.00,-8.00" />
        <lane id="E15_1" index="1" speed="13.89" length="92.00" shape="-196.00,-4.80 -104.00,-4.80" />
        <lane id="E15_2" index="2" speed="13.89" length="92.00" shape="-196.00,-1.60 -104.00,-1.60" />
    </edge>
    <edge id="E16" from="J10" to="J11" priority="-1">
        <lane id="E16_0" index="0" speed="13.89" length="79.20" shape="-89.60,-8.00 -10.40,-8.00" />
        <lane id="E16_1" index="1" speed="13.89" length="79.20" shape="-89.60,-4.80 -10.40,-4.80" />
        <lane id="E16_2" index="2" speed="13.89" length="79.20" shape="-89.60,-1.60 -10.40,-1.60" />
    </edge>
    <edge id="E17" from="J12" to="J8" priority="-1">
        <lane id="E17_0" index="0" speed="13.89" length="80.00" shape="-295.20,-93.60 -295.20,-13.60" />
        <lane id="E17_1" index="1" speed="13.89" length="80.00" shape="-298.40,-93.60 -298.40,-13.60" />
    </edge>
    <edge id="E18" from="J9" to="J13" priority="-1">
        <lane id="E18_0" index="0" speed="13.89" length="76.00" shape="-204.80,-13.60 -204.80,-89.60" />
        <lane id="E18_1" index="1" speed="13.89" length="76.00" shape="-201.60,-13.60 -201.60,-89.60" />
    </edge>
    <edge id="E19" from="J14" to="J10" priority="-1">
        <lane id="E19_0" index="0" speed="13.89" length="76.00" shape="-95.20,-89.60 -95.20,-13.60" />
        <lane id="E19_1" index="1" speed="13.89" length="76.00" shape="-98.40,-89.60 -98.40,-13.60" />
    </edge>
    <edge id="E2" from="J2" to="J3" priority="-1">
        <lane id="E2_0" index="0" speed="13.89" length="83.20" shape="-89.60,195.20 -6.40,195.20" />
        <lane id="E2_1" index="1" speed="13.89" length="83.20" shape="-89.60,198.40 -6.40,198.40" />
    </edge>
    <edge id="E20" from="J11" to="J15" priority="-1">
        <lane id="E20_0" index="0" speed="13.89" length="80.00" shape="-4.80,-13.60 -4.80,-93.60" />
        <lane id="E20_1" index="1" speed="13.89" length="80.00" shape="-1.60,-13.60 -1.60,-93.60" />
    </edge>
    <edge id="E21" from="J13" to="J12" priority="-1">
        <lane id="E21_0" index="0" speed="13.89" length="83.20" shape="-210.40,-95.20 -293.60,-95.20" />
        <lane id="E21_1" index="1" speed="13.89" length="83.20" shape="-210.40,-98.40 -293.60,-98.40" />
    </edge>
    <edge id="E22" from="J14" to="J13" priority="-1">
        <lane id="E22_0" index="0" speed="13.89" length="92.00" shape="-104.00,-95.20 -196.00,-95.20" />
        <lane id="E22_1" index="1" speed="13.89" length="92.00" shape="-104.00,-98.40 -196.00,-98.40" />
    </edge>
    <edge id="E23" from="J15" to="J14" priority="-1">
        <lane id="E23_0" index="0" speed="13.89" length="83.20" shape="-6.40,-95.20 -89.60,-95.20" />
        <lane id="E23_1" index="1" speed="13.89" length="83.20" shape="-6.40,-98.40 -89.60,-98.40" />
    </edge>
    <edge id="E3" from="J4" to="J0" priority="-1">
        <lane id="E3_0" index="0" speed="13.89" length="83.20" shape="-295.20,110.40 -295.20,193.60" />
        <lane id="E3_1" index="1" speed="13.89" length="83.20" shape="-298.40,110.40 -298.40,193.60" />
    </edge>
    <edge id="E4" from="J1" to="J5" priority="-1">
        <lane id="E4_0" index="0" speed="13.89" length="79.20" shape="-204.80,189.60 -204.80,110.40" />
        <lane id="E4_1" index="1" speed="13.89" length="79.20" shape="-201.60,189.60 -201.60,110.40" />
    </edge>
    <edge id="E5" from="J6" to="J2" priority="-1">
        <lane id="E5_0" index="0" speed="13.89" length="79.20" shape="-95.20,110.40 -95.20,189.60" />
        <lane id="E5_1" index="1" speed="13.89" length="79.20" shape="-98.40,110.40 -98.40,189.60" />
    </edge>
    <edge id="E6" from="J3" to="J7" priority="-1">
        <lane id="E6_0" index="0" speed="13.89" length="83.20" shape="-4.80,193.60 -4.80,110.40" />
        <lane id="E6_1" index="1" speed="13.89" length="83.20" shape="-1.60,193.60 -1.60,110.40" />
    </edge>
    <edge id="E7" from="J5" to="J4" priority="-1">
        <lane id="E7_0" index="0" speed="13.89" length="79.20" shape="-210.40,104.80 -289.60,104.80" />
        <lane id="E7_1" index="1" speed="13.89" length="79.20" shape="-210.40,101.60 -289.60,101.60" />
    </edge>
    <edge id="E8" from="J6" to="J5" priority="-1">
        <lane id="E8_0" index="0" speed="13.89" length="92.00" shape="-104.00,104.80 -196.00,104.80" />
        <lane id="E8_1" index="1" speed="13.89" length="92.00" shape="-104.00,101.60 -196.00,101.60" />
    </edge>
    <edge id="E9" from="J7" to="J6" priority="-1">
        <lane id="E9_0" index="0" speed="13.89" length="79.20" shape="-10.40,104.80 -89.60,104.80" />
        <lane id="E9_1" index="1" speed="13.89" length="79.20" shape="-10.40,101.60 -89.60,101.60" />
    </edge>

    <tlLogic id="S1" type="static" programID="0" offset="0">
        <phase duration="62" state="GGGG" />
        <phase duration="3" state="yyyy" />
        <phase duration="6" state="rrrr" />
    </tlLogic>
    <tlLogic id="S10" type="static" programID="0" offset="0">
        <phase duration="5" state="GGrr" />
        <phase duration="3" state="yyrr" />
        <phase duration="11" state="rrGG" />
        <phase duration="3" state="rryy" />
    </tlLogic>
    <tlLogic id="S11" type="static" programID="0" offset="0">
        <phase duration="25" state="GGrr" />
        <phase duration="3" state="yyrr" />
        <phase duration="26" state="rrGG" />
        <phase duration="3" state="rryy" />
    </tlLogic>
    <tlLogic id="S12" type="static" programID="0" offset="0">
        <phase duration="26" state="GGGG" />
        <phase duration="3" state="yyyy" />
        <phase duration="6" state="rrrr" />
    </tlLogic>
    <tlLogic id="S2" type="static" programID="0" offset="0">
        <phase duration="22" state="GGrr" />
        <phase duration="3" state="yyrr" />
        <phase duration="8" state="rrGG" />
        <phase duration="3" state="rryy" />
    </tlLogic>
    <tlLogic id="S3" type="static" programID="0" offset="0">
        <phase duration="9" state="GGr" />
        <phase duration="3" state="yyr" />
        <phase duration="43" state="rrG" />
        <phase duration="3" state="rry" />
    </tlLogic>
    <tlLogic id="S4" type="static" programID="0" offset="0">
        <phase duration="11" state="GGGGrrrr" />
        <phase duration="3" state="yyyyrrrr" />
        <phase duration="1" state="rrrrGGGG" />
        <phase duration="3" state="rrrryyyy" />
    </tlLogic>
    <tlLogic id="S5" type="static" programID="0" offset="0">
        <phase duration="16" state="GGGGrrrr" />
        <phase duration="3" state="yyyyrrrr" />
        <phase duration="34" state="rrrrGGGG" />
        <phase duration="3" state="rrrryyyy" />
    </tlLogic>
    <tlLogic id="S6" type="static" programID="0" offset="0">
        <phase duration="55" state="GGG" />
        <phase duration="3" state="yyy" />
        <phase duration="15" state="rrr" />
    </tlLogic>
    <tlLogic id="S7" type="static" programID="0" offset="0">
        <phase duration="52" state="GGGGG" />
        <phase duration="3" state="yyyyy" />
        <phase duration="9" state="rrrrr" />
    </tlLogic>
    <tlLogic id="S8" type="static" programID="0" offset="0">
        <phase duration="54" state="GGGGGrrrrr" />
        <phase duration="3" state="yyyyyrrrrr" />
        <phase duration="28" state="rrrrrGGGGG" />
        <phase duration="3" state="rrrrryyyyy" />
    </tlLogic>
    <tlLogic id="S9" type="static" programID="0" offset="0">
        <phase duration="19" state="GGGGGrrrrr" />
        <phase duration="3" state="yyyyyrrrrr" />
        <phase duration="19" state="rrrrrGGGGG" />
        <phase duration="3" state="rrrrryyyyy" />
    </tlLogic>

    <junction id="J0" type="priority" x="-300.00" y="200.00" incLanes="E3_0 E3_1" intLanes=":J0_0_0 :J0_0_1" shape="-293.60,200.00 -293.60,193.60 -300.00,193.60 -299.29,197.16 -298.40,198.40 -297.16,199.29 -295.56,199.82">
        <request index="0" response="00" foes="00" cont="0" />
        <request index="1" response="00" foes="00" cont="0" />
    </junction>
    <junction id="J1" type="traffic_light" x="-200.00" y="200.00" incLanes="E0_0 E0_1" intLanes=":J1_0_0 :J1_1_0 :J1_2_0 :J1_3_0" shape="-196.00,200.00 -196.00,193.60 -198.22,193.16 -199.00,192.60 -199.56,191.82 -199.89,190.82 -200.00,189.60 -206.40,189.60 -206.84,191.82 -207.40,192.60 -208.18,193.16 -209.18,193.49 -210.40,193.60 -210.40,200.00">
        <request index="0" response="0000" foes="0000" cont="0" />
        <request index="1" response="0000" foes="0100" cont="0" />
        <request index="2" response="0010" foes="0010" cont="0" />
        <request index="3" response="0000" foes="0000" cont="0" />
    </junction>
    <junction id="J10" type="traffic_light" x="-100.00" y="0.00" incLanes="E19_0 E19_1 E15_0 E15_1 E15_2" intLanes=":J10_0_0 :J10_0_1 :J10_2_0 :J10_10_0 :J10_4_0 :J10_5_0 :J10_5_1 :J10_7_0 :J10_8_0 :J10_9_0" shape="-100.00,4.00 -93.60,4.00 -93.16,1.78 -92.60,1.00 -91.82,0.44 -90.82,0.11 -89.60,0.00 -89.60,-9.60 -91.82,-10.04 -92.60,-10.60 -93.16,-11.38 -93.49,-12.38 -93.60,-13.60 -100.00,-13.60 -100.44,-11.38 -101.00,-10.60 -101.78,-10.04 -102.78,-9.71 -104.00,-9.60 -104.00,0.00 -101.78,0.44 -101.00,1.00 -100.44,1.78 -100.11,2.78">
        <request index="0" response="0101100000" foes="0101100000" cont="0" />
        <request index="1" response="0101100000" foes="0101100000" cont="0" />
        <request index="2" response="1111100000" foes="1111101000" cont="0" />
        <request index="3" response="0101100100" foes="0101100100" cont="1" />
        <request index="4" response="1111100000" foes="1111100000" cont="0" />
        <request index="5" response="0000001000" foes="0000011111" cont="0" />
        <request index="6" response="0000001000" foes="0000011111" cont="0" />
        <request index="7" response="0100000000" foes="0100010100" cont="0" />
        <request index="8" response="0000001000" foes="0010011111" cont="0" />
        <request index="9" response="0000000000" foes="0000010100" cont="0" />
    </junction>
    <junction id="J11" type="traffic_light" x="0.00" y="0.00" incLanes="E13_0 E13_1 E16_0 E16_1 E16_2" intLanes=":J11_0_0 :J11_0_1 :J11_2_0 :J11_2_1" shape="-6.40,4.00 0.00,4.00 0.00,-13.60 -6.40,-13.60 -6.84,-11.38 -7.40,-10.60 -8.18,-10.04 -9.18,-9.71 -10.40,-9.60 -10.40,0.00 -8.18,0.44 -7.40,1.00 -6.84,1.78 -6.51,2.78">
        <request index="0" response="1100" foes="1100" cont="0" />
        <request index="1" response="1100" foes="1100" cont="0" />
        <request index="2" response="0000" foes="0011" cont="0" />
        <request index="3" response="0000" foes="0011" cont="0" />
    </junction>
    <junction id="J12" type="priority" x="-300.00" y="-100.00" incLanes="E21_0 E21_1" intLanes=":J12_0_0 :J12_0_1" shape="-300.00,-93.60 -293.60,-93.60 -293.60,-100.00 -297.16,-99.29 -298.40,-98.40 -299.29,-97.16 -299.82,-95.56">
        <request index="0" response="00" foes="00" cont="0" />
        <request index="1" response="00" foes="00" cont="0" />
    </junction>
    <junction id="J13" type="traffic_light" x="-200.00" y="-100.00" incLanes="E18_0 E18_1 E22_0 E22_1" intLanes=":J13_0_0 :J13_0_1 :J13_2_0 :J13_2_1" shape="-206.40,-89.60 -200.00,-89.60 -199.56,-91.82 -199.00,-92.60 -198.22,-93.16 -197.22,-93.49 -196.00,-93.60 -196.00,-100.00 -210.40,-100.00 -210.40,-93.60 -208.18,-93.16 -207.40,-92.60 -206.84,-91.82 -206.51,-90.82">
        <request index="0" response="0000" foes="1100" cont="0" />
        <request index="1" response="0000" foes="1100" cont="0" />
        <request index="2" response="0011" foes="0011" cont="0" />
        <request index="3" response="0011" foes="0011" cont="0" />
    </junction>
    <junction id="J14" type="traffic_light" x="-100.00" y="-100.00" incLanes="E23_0 E23_1" intLanes=":J14_0_0 :J14_1_0 :J14_4_0 :J14_3_0" shape="-100.00,-89.60 -93.60,-89.60 -93.16,-91.82 -92.60,-92.60 -91.82,-93.16 -90.82,-93.49 -89.60,-93.60 -89.60,-100.00 -104.00,-100.00 -104.00,-93.60 -101.78,-93.16 -101.00,-92.60 -100.44,-91.82 -100.11,-90.82">
        <request index="0" response="0000" foes="0000" cont="0" />
        <request index="1" response="0000" foes="0100" cont="0" />
        <request index="2" response="0010" foes="0010" cont="1" />
        <request index="3" response="0000" foes="0000" cont="0" />
    </junction>
    <junction id="J15" type="priority" x="0.00" y="-100.00" incLanes="E20_0 E20_1" intLanes=":J15_0_0 :J15_0_1" shape="-6.40,-93.60 0.00,-93.60 -0.71,-97.16 -1.60,-98.40 -2.84,-99.29 -4.44,-99.82 -6.40,-100.00">
        <request index="0" response="00" foes="00" cont="0" />
        <request index="1" response="00" foes="00" cont="0" />
    </junction>
    <junction id="J2" type="traffic_light" x="-100.00" y="200.00" incLanes="E5_0 E5_1 E1_0 E1_1" intLanes=":J2_0_0 :J2_0_1 :J2_2_0 :J2_2_1" shape="-89.60,200.00 -89.60,193.60 -91.82,193.16 -92.60,192.60 -93.16,191.82 -93.49,190.82 -93.60,189.60 -100.00,189.60 -100.44,191.82 -101.00,192.60 -101.78,193.16 -102.78,193.49 -104.00,193.60 -104.00,200.00">
        <request index="0" response="0000" foes="1100" cont="0" />
        <request index="1" response="0000" foes="1100" cont="0" />
        <request index="2" response="0011" foes="0011" cont="0" />
        <request index="3" response="0011" foes="0011" cont="0" />
    </junction>
    <junction id="J3" type="priority" x="0.00" y="200.00" incLanes="E2_0 E2_1" intLanes=":J3_0_0 :J3_0_1" shape="0.00,193.60 -6.40,193.60 -6.40,200.00 -2.84,199.29 -1.60,198.40 -0.71,197.16 -0.18,195.56">
        <request index="0" response="00" foes="00" cont="0" />
        <request index="1" response="00" foes="00" cont="0" />
    </junction>
    <junction id="J4" type="traffic_light" x="-300.00" y="100.00" incLanes="E7_0 E7_1 E10_0 E10_1" intLanes=":J4_0_0 :J4_0_1 :J4_2_0" shape="-300.00,110.40 -293.60,110.40 -293.16,108.18 -292.60,107.40 -291.82,106.84 -290.82,106.51 -289.60,106.40 -289.60,100.00 -291.82,99.56 -292.60,99.00 -293.16,98.22 -293.49,97.22 -293.60,96.00 -300.00,96.00">
        <request index="0" response="000" foes="100" cont="0" />
        <request index="1" response="000" foes="100" cont="0" />