<?xml version="1.0" encoding="UTF-8"?>

<!-- generated on 2024-11-03 19:37:01 by Eclipse SUMO netedit Version 1.21.0
<neteditConfiguration xmlns:xsi="http://www.w3.org/2001/XMLSchema-instance" xsi:noNamespaceSchemaLocation="http://sumo.dlr.de/xsd/neteditConfiguration.xsd">

    <input>
        <additional-files value="C:\Users\Agustin\OneDrive\Facultad\2024-2 Inteligencia Computacional\TpFinal\optimizacion-semaforos\sumo\test.add.xml"/>
        <route-files value="C:\Users\Agustin\OneDrive\Facultad\2024-2 Inteligencia Computacional\TpFinal\optimizacion-semaforos\sumo\test.rou.xml"/>
        <data-files value="C:\Users\Agustin\OneDrive\Facultad\2024-2 Inteligencia Computacional\TpFinal\optimizacion-semaforos\sumo\test.dat.xml"/>
        <sumo-net-file value="C:\Users\Agustin\OneDrive\Facultad\2024-2 Inteligencia Computacional\TpFinal\optimizacion-semaforos\sumo\test.net.xml"/>
    </input>

    <output>
        <output-file value="C:\Users\Agustin\OneDrive\Facultad\2024-2 Inteligencia Computacional\TpFinal\optimizacion-semaforos\sumo\test.net.xml"/>
    </output>

    <processing>
        <geometry.min-radius.fix.railways value="false"/>
        <geometry.max-grade.fix value="false"/>
        <offset.disable-normalization value="true"/>
        <lefthand value="0"/>
    </processing>

    <junctions>
        <no-turnarounds value="true"/>
        <junctions.corner-detail value="5"/>
        <junctions.limit-turn-speed value="5.50"/>
        <rectangular-lane-cut value="0"/>
    </junctions>

    <pedestrian>
        <walkingareas value="0"/>
    </pedestrian>

</neteditConfiguration>
-->

<net version="1.20" junctionCornerDetail="5" limitTurnSpeed="5.50" xmlns:xsi="http://www.w3.org/2001/XMLSchema-instance" xsi:noNamespaceSchemaLocation="http://sumo.dlr.de/xsd/net_file.xsd">

    <location netOffset="0.00,0.00" convBoundary="-300.00,-100.00,0.00,200.00" origBoundary="-10000000000.00,-10000000000.00,10000000000.00,10000000000.00" projParameter="!"/>

    <edge id=":J0_0" function="internal">
        <lane id=":J0_0_0" index="0" speed="3.90" length="2.58" shape="-298.40,196.80 -298.30,197.50 -298.00,198.00 -297.50,198.30 -296.80,198.40"/>
    </edge>
    <edge id=":J1_0" function="internal">
        <lane id=":J1_0_0" index="0" speed="6.51" length="9.03" shape="-207.20,198.40 -204.75,198.05 -203.00,197.00 -201.95,195.25 -201.60,192.80"/>
    </edge>
    <edge id=":J1_1" function="internal">
        <lane id=":J1_1_0" index="0" speed="13.89" length="11.20" shape="-207.20,198.40 -196.00,198.40"/>
    </edge>
    <edge id=":J10_0" function="internal">
        <lane id=":J10_0_0" index="0" speed="6.51" length="9.03" shape="-98.40,-7.20 -98.05,-4.75 -97.00,-3.00 -95.25,-1.95 -92.80,-1.60"/>
    </edge>
    <edge id=":J10_1" function="internal">
        <lane id=":J10_1_0" index="0" speed="13.89" length="11.20" shape="-98.40,-7.20 -98.40,4.00"/>
    </edge>
    <edge id=":J10_2" function="internal">
        <lane id=":J10_2_0" index="0" speed="13.89" length="11.20" shape="-104.00,-1.60 -92.80,-1.60"/>
    </edge>
    <edge id=":J10_3" function="internal">
        <lane id=":J10_3_0" index="0" speed="6.51" length="9.03" shape="-104.00,-1.60 -101.55,-1.25 -99.80,-0.20 -98.75,1.55 -98.40,4.00"/>
    </edge>
    <edge id=":J11_0" function="internal">
        <lane id=":J11_0_0" index="0" speed="13.89" length="11.20" shape="-1.60,4.00 -1.60,-7.20"/>
    </edge>
    <edge id=":J11_1" function="internal">
        <lane id=":J11_1_0" index="0" speed="6.51" length="9.03" shape="-7.20,-1.60 -4.75,-1.95 -3.00,-3.00 -1.95,-4.75 -1.60,-7.20"/>
    </edge>
    <edge id=":J12_0" function="internal">
        <lane id=":J12_0_0" index="0" speed="3.90" length="2.58" shape="-296.80,-98.40 -297.50,-98.30 -298.00,-98.00 -298.30,-97.50 -298.40,-96.80"/>
    </edge>
    <edge id=":J13_0" function="internal">
        <lane id=":J13_0_0" index="0" speed="6.51" length="9.03" shape="-201.60,-92.80 -201.95,-95.25 -203.00,-97.00 -204.75,-98.05 -207.20,-98.40"/>
    </edge>
    <edge id=":J13_1" function="internal">
        <lane id=":J13_1_0" index="0" speed="13.89" length="11.20" shape="-196.00,-98.40 -207.20,-98.40"/>
    </edge>
    <edge id=":J14_0" function="internal">
        <lane id=":J14_0_0" index="0" speed="6.51" length="9.03" shape="-92.80,-98.40 -95.25,-98.05 -97.00,-97.00 -98.05,-95.25 -98.40,-92.80"/>
    </edge>
    <edge id=":J14_1" function="internal">
        <lane id=":J14_1_0" index="0" speed="13.89" length="11.20" shape="-92.80,-98.40 -104.00,-98.40"/>
    </edge>
    <edge id=":J15_0" function="internal">
        <lane id=":J15_0_0" index="0" speed="3.90" length="2.58" shape="-1.60,-96.80 -1.70,-97.50 -2.00,-98.00 -2.50,-98.30 -3.20,-98.40"/>
    </edge>
    <edge id=":J2_0" function="internal">
        <lane id=":J2_0_0" index="0" speed="6.51" length="9.03" shape="-98.40,192.80 -98.05,195.25 -97.00,197.00 -95.25,198.05 -92.80,198.40"/>
    </edge>
    <edge id=":J2_1" function="internal">
        <lane id=":J2_1_0" index="0" speed="13.89" length="11.20" shape="-104.00,198.40 -92.80,198.40"/>
    </edge>
    <edge id=":J3_0" function="internal">
        <lane id=":J3_0_0" index="0" speed="3.90" length="2.58" shape="-3.20,198.40 -2.50,198.30 -2.00,198.00 -1.70,197.50 -1.60,196.80"/>
    </edge>
    <edge id=":J4_0" function="internal">
        <lane id=":J4_0_0" index="0" speed="6.51" length="9.03" shape="-292.80,101.60 -295.25,101.95 -297.00,103.00 -298.05,104.75 -298.40,107.20"/>
    </edge>
    <edge id=":J4_1" function="internal">
        <lane id=":J4_1_0" index="0" speed="13.89" length="11.20" shape="-298.40,96.00 -298.40,107.20"/>
    </edge>
    <edge id=":J5_0" function="internal">
        <lane id=":J5_0_0" index="0" speed="6.51" length="9.03" shape="-201.60,107.20 -201.95,104.75 -203.00,103.00 -204.75,101.95 -207.20,101.60"/>
    </edge>
    <edge id=":J5_1" function="internal">
        <lane id=":J5_1_0" index="0" speed="13.89" length="11.20" shape="-201.60,107.20 -201.60,96.00"/>
    </edge>
    <edge id=":J5_2" function="internal">
        <lane id=":J5_2_0" index="0" speed="13.89" length="11.20" shape="-196.00,101.60 -207.20,101.60"/>
    </edge>
    <edge id=":J5_3" function="internal">
        <lane id=":J5_3_0" index="0" speed="6.51" length="9.03" shape="-196.00,101.60 -198.45,101.25 -200.20,100.20 -201.25,98.45 -201.60,96.00"/>
    </edge>
    <edge id=":J6_0" function="internal">
        <lane id=":J6_0_0" index="0" speed="6.51" length="9.03" shape="-92.80,101.60 -95.25,101.95 -97.00,103.00 -98.05,104.75 -98.40,107.20"/>
    </edge>
    <edge id=":J6_1" function="internal">
        <lane id=":J6_1_0" index="0" speed="13.89" length="11.20" shape="-92.80,101.60 -104.00,101.60"/>
    </edge>
    <edge id=":J6_2" function="internal">
        <lane id=":J6_2_0" index="0" speed="13.89" length="11.20" shape="-98.40,96.00 -98.40,107.20"/>
    </edge>
    <edge id=":J6_3" function="internal">
        <lane id=":J6_3_0" index="0" speed="6.51" length="9.03" shape="-98.40,96.00 -98.75,98.45 -99.80,100.20 -101.55,101.25 -104.00,101.60"/>
    </edge>
    <edge id=":J7_0" function="internal">
        <lane id=":J7_0_0" index="0" speed="6.51" length="9.03" shape="-1.60,107.20 -1.95,104.75 -3.00,103.00 -4.75,101.95 -7.20,101.60"/>
    </edge>
    <edge id=":J7_1" function="internal">
        <lane id=":J7_1_0" index="0" speed="13.89" length="11.20" shape="-1.60,107.20 -1.60,96.00"/>
    </edge>
    <edge id=":J8_0" function="internal">
        <lane id=":J8_0_0" index="0" speed="6.51" length="9.03" shape="-298.40,-7.20 -298.05,-4.75 -297.00,-3.00 -295.25,-1.95 -292.80,-1.60"/>
    </edge>
    <edge id=":J8_1" function="internal">
        <lane id=":J8_1_0" index="0" speed="13.89" length="11.20" shape="-298.40,-7.20 -298.40,4.00"/>
    </edge>
    <edge id=":J9_0" function="internal">
        <lane id=":J9_0_0" index="0" speed="13.89" length="11.20" shape="-201.60,4.00 -201.60,-7.20"/>
    </edge>
    <edge id=":J9_1" function="internal">
        <lane id=":J9_1_0" index="0" speed="6.51" length="9.03" shape="-201.60,4.00 -201.25,1.55 -200.20,-0.20 -198.45,-1.25 -196.00,-1.60"/>
    </edge>
    <edge id=":J9_2" function="internal">
        <lane id=":J9_2_0" index="0" speed="6.51" length="9.03" shape="-207.20,-1.60 -204.75,-1.95 -203.00,-3.00 -201.95,-4.75 -201.60,-7.20"/>
    </edge>
    <edge id=":J9_3" function="internal">
        <lane id=":J9_3_0" index="0" speed="13.89" length="11.20" shape="-207.20,-1.60 -196.00,-1.60"/>
    </edge>

    <edge id="E0" from="J0" to="J1" priority="-1">
        <lane id="E0_0" index="0" speed="13.89" length="89.60" shape="-296.80,198.40 -207.20,198.40"/>
    </edge>
    <edge id="E1" from="J1" to="J2" priority="-1">
        <lane id="E1_0" index="0" speed="13.89" length="92.00" shape="-196.00,198.40 -104.00,198.40"/>
    </edge>
    <edge id="E10" from="J8" to="J4" priority="-1">
        <lane id="E10_0" index="0" speed="13.89" length="92.00" shape="-298.40,4.00 -298.40,96.00"/>
    </edge>
    <edge id="E11" from="J5" to="J9" priority="-1">
        <lane id="E11_0" index="0" speed="13.89" length="92.00" shape="-201.60,96.00 -201.60,4.00"/>
    </edge>
    <edge id="E12" from="J10" to="J6" priority="-1">
        <lane id="E12_0" index="0" speed="13.89" length="92.00" shape="-98.40,4.00 -98.40,96.00"/>
    </edge>
    <edge id="E13" from="J7" to="J11" priority="-1">
        <lane id="E13_0" index="0" speed="13.89" length="92.00" shape="-1.60,96.00 -1.60,4.00"/>
    </edge>
    <edge id="E14" from="J8" to="J9" priority="-1">
        <lane id="E14_0" index="0" speed="13.89" length="85.60" shape="-292.80,-1.60 -207.20,-1.60"/>
    </edge>
    <edge id="E15" from="J9" to="J10" priority="-1">
        <lane id="E15_0" index="0" speed="13.89" length="92.00" shape="-196.00,-1.60 -104.00,-1.60"/>
    </edge>
    <edge id="E16" from="J10" to="J11" priority="-1">
        <lane id="E16_0" index="0" speed="13.89" length="85.60" shape="-92.80,-1.60 -7.20,-1.60"/>
    </edge>
    <edge id="E17" from="J12" to="J8" priority="-1">
        <lane id="E17_0" index="0" speed="13.89" length="89.60" shape="-298.40,-96.80 -298.40,-7.20"/>
    </edge>
    <edge id="E18" from="J9" to="J13" priority="-1">
        <lane id="E18_0" index="0" speed="13.89" length="85.60" shape="-201.60,-7.20 -201.60,-92.80"/>
    </edge>
    <edge id="E19" from="J14" to="J10" priority="-1">
        <lane id="E19_0" index="0" speed="13.89" length="85.60" shape="-98.40,-92.80 -98.40,-7.20"/>
    </edge>
    <edge id="E2" from="J2" to="J3" priority="-1">
        <lane id="E2_0" index="0" speed="13.89" length="89.60" shape="-92.80,198.40 -3.20,198.40"/>
    </edge>
    <edge id="E20" from="J11" to="J15" priority="-1">
        <lane id="E20_0" index="0" speed="13.89" length="89.60" shape="-1.60,-7.20 -1.60,-96.80"/>
    </edge>
    <edge id="E21" from="J13" to="J12" priority="-1">
        <lane id="E21_0" index="0" speed="13.89" length="89.60" shape="-207.20,-98.40 -296.80,-98.40"/>
    </edge>
    <edge id="E22" from="J14" to="J13" priority="-1">
        <lane id="E22_0" index="0" speed="13.89" length="92.00" shape="-104.00,-98.40 -196.00,-98.40"/>
    </edge>
    <edge id="E23" from="J15" to="J14" priority="-1">
        <lane id="E23_0" index="0" speed="13.89" length="89.60" shape="-3.20,-98.40 -92.80,-98.40"/>
    </edge>
    <edge id="E3" from="J4" to="J0" priority="-1">
        <lane id="E3_0" index="0" speed="13.89" length="89.60" shape="-298.40,107.20 -298.40,196.80"/>
    </edge>
    <edge id="E4" from="J1" to="J5" priority="-1">
        <lane id="E4_0" index="0" speed="13.89" length="85.60" shape="-201.60,192.80 -201.60,107.20"/>
    </edge>
    <edge id="E5" from="J6" to="J2" priority="-1">
        <lane id="E5_0" index="0" speed="13.89" length="85.60" shape="-98.40,107.20 -98.40,192.80"/>
    </edge>
    <edge id="E6" from="J3" to="J7" priority="-1">
        <lane id="E6_0" index="0" speed="13.89" length="89.60" shape="-1.60,196.80 -1.60,107.20"/>
    </edge>
    <edge id="E7" from="J5" to="J4" priority="-1">
        <lane id="E7_0" index="0" speed="13.89" length="85.60" shape="-207.20,101.60 -292.80,101.60"/>
    </edge>
    <edge id="E8" from="J6" to="J5" priority="-1">
        <lane id="E8_0" index="0" speed="13.89" length="92.00" shape="-104.00,101.60 -196.00,101.60"/>
    </edge>
    <edge id="E9" from="J7" to="J6" priority="-1">
        <lane id="E9_0" index="0" speed="13.89" length="85.60" shape="-7.20,101.60 -92.80,101.60"/>
    </edge>

    <tlLogic id="S1" type="static" programID="0" offset="0">
        <phase duration="82" state="GG"/>
        <phase duration="3"  state="yy"/>
        <phase duration="5"  state="rr"/>
    </tlLogic>
    <tlLogic id="S10" type="static" programID="0" offset="0">
        <phase duration="42" state="Gr"/>
        <phase duration="3"  state="yr"/>
        <phase duration="42" state="rG"/>
        <phase duration="3"  state="ry"/>
    </tlLogic>
    <tlLogic id="S11" type="static" programID="0" offset="0">
        <phase duration="42" state="Gr"/>
        <phase duration="3"  state="yr"/>
        <phase duration="42" state="rG"/>
        <phase duration="3"  state="ry"/>
    </tlLogic>
    <tlLogic id="S12" type="static" programID="0" offset="0">
        <phase duration="82" state="GG"/>
        <phase duration="3"  state="yy"/>
        <phase duration="5"  state="rr"/>
    </tlLogic>
    <tlLogic id="S2" type="static" programID="0" offset="0">
        <phase duration="42" state="Gr"/>
        <phase duration="3"  state="yr"/>
        <phase duration="42" state="rG"/>
        <phase duration="3"  state="ry"/>
    </tlLogic>
    <tlLogic id="S3" type="static" programID="0" offset="0">
        <phase duration="42" state="Gr"/>
        <phase duration="3"  state="yr"/>
        <phase duration="42" state="rG"/>
        <phase duration="3"  state="ry"/>
    </tlLogic>
    <tlLogic id="S4" type="static" programID="0" offset="0">
        <phase duration="42" state="GGrr"/>
        <phase duration="3"  state="yyrr"/>
        <phase duration="42" state="rrGG"/>
        <phase duration="3"  state="rryy"/>
    </tlLogic>
    <tlLogic id="S5" type="static" programID="0" offset="0">
        <phase duration="42" state="GGrr"/>
        <phase duration="3"  state="yyrr"/>
        <phase duration="42" state="rrGG"/>
        <phase duration="3"  state="rryy"/>
    </tlLogic>
    <tlLogic id="S6" type="static" programID="0" offset="0">
        <phase duration="82" state="GG"/>
        <phase duration="3"  state="yy"/>
        <phase duration="5"  state="rr"/>
    </tlLogic>
    <tlLogic id="S7" type="static" programID="0" offset="0">
        <phase duration="82" state="GG"/>
        <phase duration="3"  state="yy"/>
        <phase duration="5"  state="rr"/>
    </tlLogic>
    <tlLogic id="S8" type="static" programID="0" offset="0">
        <phase duration="42" state="GGrr"/>
        <phase duration="3"  state="yyrr"/>
        <phase duration="42" state="rrGG"/>
        <phase duration="3"  state="rryy"/>
    </tlLogic>
    <tlLogic id="S9" type="static" programID="0" offset="0">
        <phase duration="42" state="GGrr"/>
        <phase duration="3"  state="yyrr"/>
        <phase duration="42" state="rrGG"/>
        <phase duration="3"  state="rryy"/>
    </tlLogic>

    <junction id="J0" type="priority" x="-300.00" y="200.00" incLanes="E3_0" intLanes=":J0_0_0" shape="-296.80,200.00 -296.80,196.80 -300.00,196.80 -299.64,198.58 -299.20,199.20 -298.58,199.64 -297.78,199.91">
        <request index="0" response="0" foes="0" cont="0"/>
    </junction>
    <junction id="J1" type="traffic_light" x="-200.00" y="200.00" incLanes="E0_0" intLanes=":J1_0_0 :J1_1_0" shape="-196.00,200.00 -196.00,196.80 -198.22,196.36 -199.00,195.80 -199.56,195.02 -199.89,194.02 -200.00,192.80 -203.20,192.80 -203.64,195.02 -204.20,195.80 -204.98,196.36 -205.98,196.69 -207.20,196.80 -207.20,200.00">
        <request index="0" response="00" foes="00" cont="0"/>
        <request index="1" response="00" foes="00" cont="0"/>
    </junction>
    <junction id="J10" type="traffic_light" x="-100.00" y="0.00" incLanes="E19_0 E15_0" intLanes=":J10_0_0 :J10_1_0 :J10_2_0 :J10_3_0" shape="-100.00,4.00 -96.80,4.00 -96.36,1.78 -95.80,1.00 -95.02,0.44 -94.02,0.11 -92.80,0.00 -92.80,-3.20 -95.02,-3.64 -95.80,-4.20 -96.36,-4.98 -96.69,-5.98 -96.80,-7.20 -100.00,-7.20 -100.44,-4.98 -101.00,-4.20 -101.78,-3.64 -102.78,-3.31 -104.00,-3.20 -104.00,0.00 -101.78,0.44 -101.00,1.00 -100.44,1.78 -100.11,2.78">
        <request index="0" response="0000" foes="0100" cont="0"/>
        <request index="1" response="0000" foes="1100" cont="0"/>
        <request index="2" response="0011" foes="0011" cont="0"/>
        <request index="3" response="0010" foes="0010" cont="0"/>
    </junction>
    <junction id="J11" type="traffic_light" x="0.00" y="0.00" incLanes="E13_0 E16_0" intLanes=":J11_0_0 :J11_1_0" shape="-3.20,4.00 0.00,4.00 0.00,-7.20 -3.20,-7.20 -3.64,-4.98 -4.20,-4.20 -4.98,-3.64 -5.98,-3.31 -7.20,-3.20 -7.20,0.00 -4.98,0.44 -4.20,1.00 -3.64,1.78 -3.31,2.78">
        <request index="0" response="10" foes="10" cont="0"/>
        <request index="1" response="00" foes="01" cont="0"/>
    </junction>
    <junction id="J12" type="priority" x="-300.00" y="-100.00" incLanes="E21_0" intLanes=":J12_0_0" shape="-300.00,-96.80 -296.80,-96.80 -296.80,-100.00 -298.58,-99.64 -299.20,-99.20 -299.64,-98.58 -299.91,-97.78">
        <request index="0" response="0" foes="0" cont="0"/>
    </junction>
    <junction id="J13" type="traffic_light" x="-200.00" y="-100.00" incLanes="E18_0 E22_0" intLanes=":J13_0_0 :J13_1_0" shape="-203.20,-92.80 -200.00,-92.80 -199.56,-95.02 -199.00,-95.80 -198.22,-96.36 -197.22,-96.69 -196.00,-96.80 -196.00,-100.00 -207.20,-100.00 -207.20,-96.80 -204.98,-96.36 -204.20,-95.80 -203.64,-95.02 -203.31,-94.02">
        <request index="0" response="00" foes="10" cont="0"/>
        <request index="1" response="01" foes="01" cont="0"/>
    </junction>
    <junction id="J14" type="traffic_light" x="-100.00" y="-100.00" incLanes="E23_0" intLanes=":J14_0_0 :J14_1_0" shape="-100.00,-92.80 -96.80,-92.80 -96.36,-95.02 -95.80,-95.80 -95.02,-96.36 -94.02,-96.69 -92.80,-96.80 -92.80,-100.00 -104.00,-100.00 -104.00,-96.80 -101.78,-96.36 -101.00,-95.80 -100.44,-95.02 -100.11,-94.02">
        <request index="0" response="00" foes="00" cont="0"/>
        <request index="1" response="00" foes="00" cont="0"/>
    </junction>
    <junction id="J15" type="priority" x="0.00" y="-100.00" incLanes="E20_0" intLanes=":J15_0_0" shape="-3.20,-96.80 0.00,-96.80 -0.36,-98.58 -0.80,-99.20 -1.42,-99.64 -2.22,-99.91 -3.20,-100.00">
        <request index="0" response="0" foes="0" cont="0"/>
    </junction>
    <junction id="J2" type="traffic_light" x="-100.00" y="200.00" incLanes="E5_0 E1_0" intLanes=":J2_0_0 :J2_1_0" shape="-92.80,200.00 -92.80,196.80 -95.02,196.36 -95.80,195.80 -96.36,195.02 -96.69,194.02 -96.80,192.80 -100.00,192.80 -100.44,195.02 -101.00,195.80 -101.78,196.36 -102.78,196.69 -104.00,196.80 -104.00,200.00">
        <request index="0" response="00" foes="10" cont="0"/>
        <request index="1" response="01" foes="01" cont="0"/>
    </junction>
    <junction id="J3" type="priority" x="0.00" y="200.00" incLanes="E2_0" intLanes=":J3_0_0" shape="0.00,196.80 -3.20,196.80 -3.20,200.00 -1.42,199.64 -0.80,199.20 -0.36,198.58 -0.09,197.78">
        <request index="0" response="0" foes="0" cont="0"/>
    </junction>
    <junction id="J4" type="traffic_light" x="-300.00" y="100.00" incLanes="E7_0 E10_0" intLanes=":J4_0_0 :J4_1_0" shape="-300.00,107.20 -296.80,107.20 -296.36,104.98 -295.80,104.20 -295.02,103.64 -294.02,103.31 -292.80,103.20 -292.80,100.00 -295.02,99.56 -295.80,99.00 -296.36,98.22 -296.69,97.22 -296.80,96.00 -300.00,96.00">
        <request index="0" response="00" foes="10" cont="0"/>
        <request index="1" response="01" foes="01" cont="0"/>
    </junction>
    <junction id="J5" type="traffic_light" x="-200.00" y="100.00" incLanes="E4_0 E8_0" intLanes=":J5_0_0 :J5_1_0 :J5_2_0 :J5_3_0" shape="-203.20,107.20 -200.00,107.20 -199.56,104.98 -199.00,104.20 -198.22,103.64 -197.22,103.31 -196.00,103.20 -196.00,100.00 -198.22,99.56 -199.00,99.00 -199.56,98.22 -199.89,97.22 -200.00,96.00 -203.20,96.00 -203.64,98.22 -204.20,99.00 -204.98,99.56 -205.98,99.89 -207.20,100.00 -207.20,103.20 -204.98,103.64 -204.20,104.20 -203.64,104.98 -203.31,105.98">
        <request index="0" response="0000" foes="0100" cont="0"/>
        <request index="1" response="0000" foes="1100" cont="0"/>
        <request index="2" response="0011" foes="0011" cont="0"/>
        <request index="3" response="0010" foes="0010" cont="0"/>
    </junction>
    <junction id="J6" type="traffic_light" x="-100.00" y="100.00" incLanes="E9_0 E12_0" intLanes=":J6_0_0 :J6_1_0 :J6_2_0 :J6_3_0" shape="-100.00,107.20 -96.80,107.20 -96.36,104.98 -95.80,104.20 -95.02,103.64 -94.02,103.31 -92.80,103.20 -92.80,100.00 -95.02,99.56 -95.80,99.00 -96.36,98.22 -96.69,97.22 -96.80,96.00 -100.00,96.00 -100.44,98.22 -101.00,99.00 -101.78,99.56 -102.78,99.89 -104.00,100.00 -104.00,103.20 -101.78,103.64 -101.00,104.20 -100.44,104.98 -100.11,105.98">
        <request index="0" response="0000" foes="0100" cont="0"/>
        <request index="1" response="0000" foes="1100" cont="0"/>
        <request index="2" response="0011" foes="0011" cont="0"/>
        <request index="3" response="0010" foes="0010" cont="0"/>
    </junction>
    <junction id="J7" type="traffic_light" x="0.00" y="100.00" incLanes="E6_0" intLanes=":J7_0_0 :J7_1_0" shape="-3.20,107.20 0.00,107.20 0.00,96.00 -3.20,96.00 -3.64,98.22 -4.20,99.00 -4.98,99.56 -5.98,99.89 -7.20,100.00 -7.20,103.20 -4.98,103.64 -4.20,104.20 -3.64,104.98 -3.31,105.98">
        <request index="0" response="00" foes="00" cont="0"/>
        <request index="1" response="00" foes="00" cont="0"/>
    </junction>
    <junction id="J8" type="traffic_light" x="-300.00" y="0.00" incLanes="E17_0" intLanes=":J8_0_0 :J8_1_0" shape="-300.00,4.00 -296.80,4.00 -296.36,1.78 -295.80,1.00 -295.02,0.44 -294.02,0.11 -292.80,0.00 -292.80,-3.20 -295.02,-3.64 -295.80,-4.20 -296.36,-4.98 -296.69,-5.98 -296.80,-7.20 -300.00,-7.20">
        <request index="0" response="00" foes="00" cont="0"/>
        <request index="1" response="00" foes="00" cont="0"/>
    </junction>
    <junction id="J9" type="traffic_light" x="-200.00" y="0.00" incLanes="E11_0 E14_0" intLanes=":J9_0_0 :J9_1_0 :J9_2_0 :J9_3_0" shape="-203.20,4.00 -200.00,4.00 -199.56,1.78 -199.00,1.00 -198.22,0.44 -197.22,0.11 -196.00,0.00 -196.00,-3.20 -198.22,-3.64 -199.00,-4.20 -199.56,-4.98 -199.89,-5.98 -200.00,-7.20 -203.20,-7.20 -203.64,-4.98 -204.20,-4.20 -204.98,-3.64 -205.98,-3.31 -207.20,-3.20 -207.20,0.00 -204.98,0.44 -204.20,1.00 -203.64,1.78 -203.31,2.78">
        <request index="0" response="1100" foes="1100" cont="0"/>
        <request index="1" response="1000" foes="1000" cont="0"/>
        <request index="2" response="0000" foes="0001" cont="0"/>
        <request index="3" response="0000" foes="0011" cont="0"/>
    </junction>

    <connection from="E0" to="E4" fromLane="0" toLane="0" via=":J1_0_0" tl="S1" linkIndex="0" dir="r" state="O"/>
    <connection from="E0" to="E1" fromLane="0" toLane="0" via=":J1_1_0" tl="S1" linkIndex="1" dir="s" state="O"/>
    <connection from="E1" to="E2" fromLane="0" toLane="0" via=":J2_1_0" tl="S2" linkIndex="1" dir="s" state="o"/>
    <connection from="E10" to="E3" fromLane="0" toLane="0" via=":J4_1_0" tl="S3" linkIndex="1" dir="s" state="o"/>
    <connection from="E11" to="E18" fromLane="0" toLane="0" via=":J9_0_0" tl="S8" linkIndex="0" dir="s" state="o"/>
    <connection from="E11" to="E15" fromLane="0" toLane="0" via=":J9_1_0" tl="S8" linkIndex="1" dir="l" state="o"/>
    <connection from="E12" to="E5" fromLane="0" toLane="0" via=":J6_2_0" tl="S5" linkIndex="2" dir="s" state="o"/>
    <connection from="E12" to="E8" fromLane="0" toLane="0" via=":J6_3_0" tl="S5" linkIndex="3" dir="l" state="o"/>
    <connection from="E13" to="E20" fromLane="0" toLane="0" via=":J11_0_0" tl="S10" linkIndex="0" dir="s" state="o"/>
    <connection from="E14" to="E18" fromLane="0" toLane="0" via=":J9_2_0" tl="S8" linkIndex="2" dir="r" state="O"/>
    <connection from="E14" to="E15" fromLane="0" toLane="0" via=":J9_3_0" tl="S8" linkIndex="3" dir="s" state="O"/>
    <connection from="E15" to="E16" fromLane="0" toLane="0" via=":J10_2_0" tl="S9" linkIndex="2" dir="s" state="o"/>
    <connection from="E15" to="E12" fromLane="0" toLane="0" via=":J10_3_0" tl="S9" linkIndex="3" dir="l" state="o"/>
    <connection from="E16" to="E20" fromLane="0" toLane="0" via=":J11_1_0" tl="S10" linkIndex="1" dir="r" state="O"/>
    <connection from="E17" to="E14" fromLane="0" toLane="0" via=":J8_0_0" tl="S7" linkIndex="0" dir="r" state="O"/>
    <connection from="E17" to="E10" fromLane="0" toLane="0" via=":J8_1_0" tl="S7" linkIndex="1" dir="s" state="O"/>
    <connection from="E18" to="E21" fromLane="0" toLane="0" via=":J13_0_0" tl="S11" linkIndex="0" dir="r" state="O"/>
    <connection from="E19" to="E16" fromLane="0" toLane="0" via=":J10_0_0" tl="S9" linkIndex="0" dir="r" state="O"/>
    <connection from="E19" to="E12" fromLane="0" toLane="0" via=":J10_1_0" tl="S9" linkIndex="1" dir="s" state="O"/>
    <connection from="E2" to="E6" fromLane="0" toLane="0" via=":J3_0_0" dir="r" state="M"/>
    <connection from="E20" to="E23" fromLane="0" toLane="0" via=":J15_0_0" dir="r" state="M"/>
    <connection from="E21" to="E17" fromLane="0" toLane="0" via=":J12_0_0" dir="r" state="M"/>
    <connection from="E22" to="E21" fromLane="0" toLane="0" via=":J13_1_0" tl="S11" linkIndex="1" dir="s" state="o"/>
    <connection from="E23" to="E19" fromLane="0" toLane="0" via=":J14_0_0" tl="S12" linkIndex="0" dir="r" state="O"/>
    <connection from="E23" to="E22" fromLane="0" toLane="0" via=":J14_1_0" tl="S12" linkIndex="1" dir="s" state="O"/>
    <connection from="E3" to="E0" fromLane="0" toLane="0" via=":J0_0_0" dir="r" state="M"/>
    <connection from="E4" to="E7" fromLane="0" toLane="0" via=":J5_0_0" tl="S4" linkIndex="0" dir="r" state="O"/>
    <connection from="E4" to="E11" fromLane="0" toLane="0" via=":J5_1_0" tl="S4" linkIndex="1" dir="s" state="O"/>
    <connection from="E5" to="E2" fromLane="0" toLane="0" via=":J2_0_0" tl="S2" linkIndex="0" dir="r" state="O"/>
    <connection from="E6" to="E9" fromLane="0" toLane="0" via=":J7_0_0" tl="S6" linkIndex="0" dir="r" state="O"/>
    <connection from="E6" to="E13" fromLane="0" toLane="0" via=":J7_1_0" tl="S6" linkIndex="1" dir="s" state="O"/>
    <connection from="E7" to="E3" fromLane="0" toLane="0" via=":J4_0_0" tl="S3" linkIndex="0" dir="r" state="O"/>
    <connection from="E8" to="E7" fromLane="0" toLane="0" via=":J5_2_0" tl="S4" linkIndex="2" dir="s" state="o"/>
    <connection from="E8" to="E11" fromLane="0" toLane="0" via=":J5_3_0" tl="S4" linkIndex="3" dir="l" state="o"/>
    <connection from="E9" to="E5" fromLane="0" toLane="0" via=":J6_0_0" tl="S5" linkIndex="0" dir="r" state="O"/>
    <connection from="E9" to="E8" fromLane="0" toLane="0" via=":J6_1_0" tl="S5" linkIndex="1" dir="s" state="O"/>

    <connection from=":J0_0" to="E0" fromLane="0" toLane="0" dir="r" state="M"/>
    <connection from=":J1_0" to="E4" fromLane="0" toLane="0" dir="r" state="M"/>
    <connection from=":J1_1" to="E1" fromLane="0" toLane="0" dir="s" state="M"/>
    <connection from=":J10_0" to="E16" fromLane="0" toLane="0" dir="r" state="M"/>
    <connection from=":J10_1" to="E12" fromLane="0" toLane="0" dir="s" state="M"/>
    <connection from=":J10_2" to="E16" fromLane="0" toLane="0" dir="s" state="M"/>
    <connection from=":J10_3" to="E12" fromLane="0" toLane="0" dir="l" state="M"/>
    <connection from=":J11_0" to="E20" fromLane="0" toLane="0" dir="s" state="M"/>
    <connection from=":J11_1" to="E20" fromLane="0" toLane="0" dir="r" state="M"/>
    <connection from=":J12_0" to="E17" fromLane="0" toLane="0" dir="r" state="M"/>
    <connection from=":J13_0" to="E21" fromLane="0" toLane="0" dir="r" state="M"/>
    <connection from=":J13_1" to="E21" fromLane="0" toLane="0" dir="s" state="M"/>
    <connection from=":J14_0" to="E19" fromLane="0" toLane="0" dir="r" state="M"/>
    <connection from=":J14_1" to="E22" fromLane="0" toLane="0" dir="s" state="M"/>
    <connection from=":J15_0" to="E23" fromLane="0" toLane="0" dir="r" state="M"/>
    <connection from=":J2_0" to="E2" fromLane="0" toLane="0" dir="r" state="M"/>
    <connection from=":J2_1" to="E2" fromLane="0" toLane="0" dir="s" state="M"/>
    <connection from=":J3_0" to="E6" fromLane="0" toLane="0" dir="r" state="M"/>
    <connection from=":J4_0" to="E3" fromLane="0" toLane="0" dir="r" state="M"/>
    <connection from=":J4_1" to="E3" fromLane="0" toLane="0" dir="s" state="M"/>
    <connection from=":J5_0" to="E7" fromLane="0" toLane="0" dir="r" state="M"/>
    <connection from=":J5_1" to="E11" fromLane="0" toLane="0" dir="s" state="M"/>
    <connection from=":J5_2" to="E7" fromLane="0" toLane="0" dir="s" state="M"/>
    <connection from=":J5_3" to="E11" fromLane="0" toLane="0" dir="l" state="M"/>
    <connection from=":J6_0" to="E5" fromLane="0" toLane="0" dir="r" state="M"/>
    <connection from=":J6_1" to="E8" fromLane="0" toLane="0" dir="s" state="M"/>
    <connection from=":J6_2" to="E5" fromLane="0" toLane="0" dir="s" state="M"/>
    <connection from=":J6_3" to="E8" fromLane="0" toLane="0" dir="l" state="M"/>
    <connection from=":J7_0" to="E9" fromLane="0" toLane="0" dir="r" state="M"/>
    <connection from=":J7_1" to="E13" fromLane="0" toLane="0" dir="s" state="M"/>
    <connection from=":J8_0" to="E14" fromLane="0" toLane="0" dir="r" state="M"/>
    <connection from=":J8_1" to="E10" fromLane="0" toLane="0" dir="s" state="M"/>
    <connection from=":J9_0" to="E18" fromLane="0" toLane="0" dir="s" state="M"/>
    <connection from=":J9_1" to="E15" fromLane="0" toLane="0" dir="l" state="M"/>
    <connection from=":J9_2" to="E18" fromLane="0" toLane="0" dir="r" state="M"/>