<?xml version='1.0' encoding='UTF-8'?>
<routes xmlns:xsi="http://www.w3.org/2001/XMLSchema-instance" xsi:noNamespaceSchemaLocation="http://sumo.dlr.de/xsd/routes_file.xsd">
  <route id="r_0" edges="E9 E8 E7 E3 E0 E4 E7" />
  <flow id="f_0" begin="0.00" end="600.00" route="r_0" number="31" />
  <route id="r_1" edges="E17 E10 E3 E0 E4 E11 E15" />
  <flow id="f_1" begin="0.00" end="600.00" route="r_1" number="39" />
  <route id="r_2" edges="E1 E2 E6 E13 E20 E23 E19" />
  <flow id="f_2" begin="0.00" end="600.00" route="r_2" number="47" />
  <route id="r_3" edges="E1 E2 E6 E13 E20 E23 E22" />
  <flow id="f_3" begin="0.00" end="600.00" route="r_3" number="26" />
  <route id="r_4" edges="E21 E17 E14 E15 E16 E20 E23" />
  <flow id="f_4" begin="0.00" end="600.00" route="r_4" number="55" />
  <route id="r_5" edges="E6 E9 E5 E2 E6 E9 E8" />
  <flow id="f_5" begin="0.00" end="600.00" route="r_5" number="59" />
  <route id="r_6" edges="E10 E3 E0 E4 E11 E15 E12" />
  <flow id="f_6" begin="0.00" end="600.00" route="r_6" number="71" />
  <route id="r_7" edges="E13 E20 E23 E22 E21 E17 E14" />
  <flow id="f_7" begin="0.00" end="600.00" route="r_7" number="95" />
  <route id="r_8" edges="E14 E15 E12 E8 E7 E3 E0" />
  <flow id="f_8" begin="0.00" end="600.00" route="r_8" number="74" />
  <route id="r_9" edges="E15 E16 E20 E23 E19 E12 E5" />
  <flow id="f_9" begin="0.00" end="600.00" route="r_9" number="58" />
</routes>