<?xml version='1.0' encoding='UTF-8'?>
<routes xmlns:xsi="http://www.w3.org/2001/XMLSchema-instance" xsi:noNamespaceSchemaLocation="http://sumo.dlr.de/xsd/routes_file.xsd">
  <route id="r_0" edges="E17 E14 E15 E12" />
  <flow id="f_0" begin="0.00" end="600.00" route="r_0" number="41" />
  <route id="r_1" edges="E4 E11 E15 E12" />
  <flow id="f_1" begin="0.00" end="600.00" route="r_1" number="41" />
  <route id="r_2" edges="E18 E21 E17 E10" />
  <flow id="f_2" begin="0.00" end="600.00" route="r_2" number="42" />
  <route id="r_3" edges="E10 E3 E0 E4" />
  <flow id="f_3" begin="0.00" end="600.00" route="r_3" number="42" />
  <route id="r_4" edges="E23 E19 E12 E5" />
  <flow id="f_4" begin="0.00" end="600.00" route="r_4" number="41" />
  <route id="r_5" edges="E10 E3 E0 E4" />
  <flow id="f_5" begin="0.00" end="600.00" route="r_5" number="41" />
  <route id="r_6" edges="E9 E5 E2 E6" />
  <flow id="f_6" begin="0.00" end="600.00" route="r_6" number="41" />
  <route id="r_7" edges="E23 E19 E12 E8" />
  <flow id="f_7" begin="0.00" end="600.00" route="r_7" number="40" />
  <route id="r_8" edges="E1 E2 E6 E13" />
  <flow id="f_8" begin="0.00" end="600.00" route="r_8" number="42" />
  <route id="r_9" edges="E15 E16 E20 E23" />
  <flow id="f_9" begin="0.00" end="600.00" route="r_9" number="40" />
  <route id="r_10" edges="E10 E3 E0 E4" />
  <flow id="f_10" begin="0.00" end="600.00" route="r_10" number="41" />
  <route id="r_11" edges="E13 E20 E23 E22" />
  <flow id="f_11" begin="0.00" end="600.00" route="r_11" number="42" />
  <route id="r_12" edges="E2 E6 E13 E20" />
  <flow id="f_12" begin="0.00" end="600.00" route="r_12" number="40" />
  <route id="r_13" edges="E20 E23 E19 E12" />
  <flow id="f_13" begin="0.00" end="600.00" route="r_13" number="41" />
  <route id="r_14" edges="E12 E8 E7 E3" />
  <flow id="f_14" begin="0.00" end="600.00" route="r_14" number="41" />
  <route id="r_15" edges="E15 E16 E20 E23" />
  <flow id="f_15" begin="0.00" end="600.00" route="r_15" number="41" />
  <route id="r_16" edges="E1 E2 E6 E9" />
  <flow id="f_16" begin="0.00" end="600.00" route="r_16" number="42" />
</routes>